Version 4
SHEET 1 1684 836
WIRE 32 112 -240 112
WIRE 112 112 32 112
WIRE 432 112 368 112
WIRE 512 112 432 112
WIRE 752 112 688 112
WIRE 864 112 752 112
WIRE 928 112 864 112
WIRE 1280 112 1184 112
WIRE 1424 112 1280 112
WIRE 1616 112 1424 112
WIRE 752 128 752 112
WIRE 1280 128 1280 112
WIRE 1424 128 1424 112
WIRE 32 160 32 112
WIRE 432 176 432 112
WIRE -240 208 -240 112
WIRE 1424 208 1424 192
WIRE 864 224 864 112
WIRE 928 224 864 224
WIRE 1280 224 1280 208
WIRE 1280 224 1184 224
WIRE 864 240 864 224
WIRE 1280 240 1280 224
WIRE 1616 272 1616 112
WIRE 240 304 240 208
WIRE 432 304 432 256
WIRE 432 304 240 304
WIRE 864 336 864 320
WIRE 928 336 864 336
WIRE -240 368 -240 288
WIRE 432 368 432 304
WIRE 240 384 240 304
WIRE 32 448 32 224
WIRE 240 448 32 448
WIRE 432 448 240 448
WIRE 512 448 512 176
WIRE 512 448 432 448
WIRE 928 448 864 448
WIRE 240 496 240 448
WIRE 1056 496 1056 480
WIRE 752 528 752 192
WIRE 864 528 864 448
WIRE 864 528 752 528
WIRE 1056 528 1056 496
WIRE 1056 528 864 528
WIRE 1280 528 1280 320
WIRE 1280 528 1056 528
WIRE 1616 528 1616 352
WIRE 1616 528 1280 528
WIRE 1056 560 1056 528
FLAG -240 368 0
FLAG 240 496 0
FLAG -240 112 VCC
FLAG 688 112 VCC
FLAG 1056 560 0
FLAG 1424 208 0
SYMBOL PowerProducts\\LT1117 240 112 R0
SYMATTR InstName U1
SYMBOL voltage -240 192 R0
WINDOW 123 0 0 Left 0
WINDOW 39 0 0 Left 0
SYMATTR InstName V1
SYMATTR Value ""
SYMBOL cap 16 160 R0
SYMATTR InstName C1
SYMATTR Value 10µF
SYMBOL cap 496 112 R0
SYMATTR InstName C2
SYMATTR Value 100µF
SYMBOL cap 224 384 R0
SYMATTR InstName C3
SYMATTR Value 22µF
SYMBOL res 416 160 R0
SYMATTR InstName R1
SYMATTR Value 121
SYMBOL res 416 352 R0
SYMATTR InstName R2
SYMATTR Value 556
SYMBOL PowerProducts\\LT3033 1056 272 R0
SYMATTR InstName U3
SYMBOL res 1264 112 R0
SYMATTR InstName R3
SYMATTR Value 133k
SYMBOL res 1264 224 R0
SYMATTR InstName R4
SYMATTR Value 3.9k
SYMBOL cap 1408 128 R0
SYMATTR InstName C4
SYMATTR Value 100µF
SYMBOL cap 736 128 R0
SYMATTR InstName C5
SYMATTR Value 10µF
SYMBOL res 848 224 R0
SYMATTR InstName R5
SYMATTR Value 100k
SYMBOL res 1600 256 R0
SYMATTR InstName R6
SYMATTR Value 1.7
TEXT -274 520 Left 2 !.dc V1 8.4 7.0 0.1
